/*--------------------------------*- C++ -*----------------------------------*\
| =========                 |                                                 |
| \\      /  F ield         | OpenFOAM: The Open Source CFD Toolbox           |
|  \\    /   O peration     | Version:  4.0                                   |
|   \\  /    A nd           | Web:      www.OpenFOAM.org                      |
|    \\/     M anipulation  |                                                 |
\*---------------------------------------------------------------------------*/
FoamFile
{
    version     2.0;
    format      ascii;
    class       dictionary;
    location    "constant";
    object      transportProperties;
}
// * * * * * * * * * * * * * * * * * * * * * * * * * * * * * * * * * * * * * //

phases (water air);//first entry has to correspont to file in 0 -> alpha.water

water
{
    transportModel  Newtonian;//Newtonian fluid assumed
    nu              [0 2 -1 0 0 0 0] 0.009;//kinematic viscosity in m^2/s - solder paste
    rho             [1 -3 0 0 0 0 0] 7200;//density - solder paste
}

air
{
    transportModel  Newtonian;
    nu              [0 2 -1 0 0 0 0] 1.48e-05;//kinematic viscosity in m^2/s - air
    rho             [1 -3 0 0 0 0 0] 1;//density - air
}

sigma           [1 0 -2 0 0 0 0] 0.45;//surface tension of water/air


// ************************************************************************* //
