/*--------------------------------*- C++ -*----------------------------------*\
| =========                 |                                                 |
| \\      /  F ield         | OpenFOAM: The Open Source CFD Toolbox           |
|  \\    /   O peration     | Version:  4.0                                   |
|   \\  /    A nd           | Web:      www.OpenFOAM.org                      |
|    \\/     M anipulation  |                                                 |
\*---------------------------------------------------------------------------*/
FoamFile
{
    version     2.0;
    format      ascii;
    class       volVectorField;
    location    "0";
    object      U;
}
// * * * * * * * * * * * * * * * * * * * * * * * * * * * * * * * * * * * * * //

dimensions      [0 1 -1 0 0 0 0];//kg m s K mol A cd

internalField   uniform (0 0 0);//Initially the velocity is (0 0 0) m/s

boundaryField
{
    movingWall
    {
        type            movingWallVelocity;
        value           $internalField;
    }

    outlet
    {
        type            pressureInletOutletVelocity;
        value           $internalField;
    }
	solderInlet
    {
        type            pressureInletOutletVelocity;
        value           $internalField;
    }
    tank
    {
        type            noSlip;
    }

    pipe
    {
        type            noSlip;
    }
	farField
    {
        type            noSlip;
    }
	back
    {
        type            wedge;
    }

    front
    {
        type            wedge;
    }
}


// ************************************************************************* //
